500003
  -OEChem-10302200282D
 54 57  0     0  0  0  0  0  0999 V2000
    6.5000   -0.2321    0.0000 P   0  3  0  0  0  0  0  0  0  0  0  0
    5.5000   -0.2321    0.0000 C   0  0  0  0  0  0  0  0  0  0  0  0
    5.0000    0.6340    0.0000 C   0  0  0  0  0  0  0  0  0  0  0  0
    6.5000   -1.2320    0.0000 C   0  0  0  0  0  0  0  0  0  0  0  0
    6.5000    0.7679    0.0000 C   0  0  0  0  0  0  0  0  0  0  0  0
    7.5000   -0.2321    0.0000 C   0  0  0  0  0  0  0  0  0  0  0  0
    4.0000    0.6340    0.0000 C   0  0  0  0  0  0  0  0  0  0  0  0
    5.6340   -1.7320    0.0000 C   0  0  0  0  0  0  0  0  0  0  0  0
    7.3660    1.2680    0.0000 C   0  0  0  0  0  0  0  0  0  0  0  0
    8.0000   -1.0981    0.0000 C   0  0  0  0  0  0  0  0  0  0  0  0
    7.3660   -1.7320    0.0000 C   0  0  0  0  0  0  0  0  0  0  0  0
    5.6340    1.2680    0.0000 C   0  0  0  0  0  0  0  0  0  0  0  0
    8.0000    0.6340    0.0000 C   0  0  0  0  0  0  0  0  0  0  0  0
    3.5000    1.5000    0.0000 C   0  0  0  0  0  0  0  0  0  0  0  0
    5.6340   -2.7320    0.0000 C   0  0  0  0  0  0  0  0  0  0  0  0
    7.3660    2.2680    0.0000 C   0  0  0  0  0  0  0  0  0  0  0  0
    9.0000   -1.0981    0.0000 C   0  0  0  0  0  0  0  0  0  0  0  0
    7.3660   -2.7320    0.0000 C   0  0  0  0  0  0  0  0  0  0  0  0
    5.6340    2.2680    0.0000 C   0  0  0  0  0  0  0  0  0  0  0  0
    9.0000    0.6340    0.0000 C   0  0  0  0  0  0  0  0  0  0  0  0
    6.5000   -3.2320    0.0000 C   0  0  0  0  0  0  0  0  0  0  0  0
    6.5000    2.7680    0.0000 C   0  0  0  0  0  0  0  0  0  0  0  0
    9.5000   -0.2321    0.0000 C   0  0  0  0  0  0  0  0  0  0  0  0
    2.5000    1.5000    0.0000 C   0  0  0  0  0  0  0  0  0  0  0  0
    4.0000    2.3660    0.0000 C   0  0  0  0  0  0  0  0  0  0  0  0
    2.0000    2.3660    0.0000 C   0  0  0  0  0  0  0  0  0  0  0  0
    3.5000    3.2320    0.0000 C   0  0  0  0  0  0  0  0  0  0  0  0
    2.5000    3.2320    0.0000 C   0  0  0  0  0  0  0  0  0  0  0  0
    4.9174   -0.4441    0.0000 H   0  0  0  0  0  0  0  0  0  0  0  0
    5.6077   -0.8426    0.0000 H   0  0  0  0  0  0  0  0  0  0  0  0
    5.5826    0.8460    0.0000 H   0  0  0  0  0  0  0  0  0  0  0  0
    4.8923    1.2446    0.0000 H   0  0  0  0  0  0  0  0  0  0  0  0
    3.4174    0.4219    0.0000 H   0  0  0  0  0  0  0  0  0  0  0  0
    4.1077    0.0234    0.0000 H   0  0  0  0  0  0  0  0  0  0  0  0
    5.0970   -1.4220    0.0000 H   0  0  0  0  0  0  0  0  0  0  0  0
    7.9030    0.9579    0.0000 H   0  0  0  0  0  0  0  0  0  0  0  0
    7.6900   -1.6350    0.0000 H   0  0  0  0  0  0  0  0  0  0  0  0
    7.9030   -1.4220    0.0000 H   0  0  0  0  0  0  0  0  0  0  0  0
    5.0970    0.9579    0.0000 H   0  0  0  0  0  0  0  0  0  0  0  0
    7.6900    1.1709    0.0000 H   0  0  0  0  0  0  0  0  0  0  0  0
    5.0970   -3.0420    0.0000 H   0  0  0  0  0  0  0  0  0  0  0  0
    7.9030    2.5780    0.0000 H   0  0  0  0  0  0  0  0  0  0  0  0
    9.3100   -1.6350    0.0000 H   0  0  0  0  0  0  0  0  0  0  0  0
    7.9030   -3.0420    0.0000 H   0  0  0  0  0  0  0  0  0  0  0  0
    5.0970    2.5780    0.0000 H   0  0  0  0  0  0  0  0  0  0  0  0
    9.3100    1.1709    0.0000 H   0  0  0  0  0  0  0  0  0  0  0  0
    6.5000   -3.8520    0.0000 H   0  0  0  0  0  0  0  0  0  0  0  0
    6.5000    3.3880    0.0000 H   0  0  0  0  0  0  0  0  0  0  0  0
   10.1200   -0.2321    0.0000 H   0  0  0  0  0  0  0  0  0  0  0  0
    2.1900    0.9631    0.0000 H   0  0  0  0  0  0  0  0  0  0  0  0
    4.6200    2.3660    0.0000 H   0  0  0  0  0  0  0  0  0  0  0  0
    1.3800    2.3660    0.0000 H   0  0  0  0  0  0  0  0  0  0  0  0
    3.8100    3.7690    0.0000 H   0  0  0  0  0  0  0  0  0  0  0  0
    2.1900    3.7690    0.0000 H   0  0  0  0  0  0  0  0  0  0  0  0
  1  2  1  0  0  0  0
  1  4  1  0  0  0  0
  1  5  1  0  0  0  0
  1  6  1  0  0  0  0
  2  3  1  0  0  0  0
  2 29  1  0  0  0  0
  2 30  1  0  0  0  0
  3  7  1  0  0  0  0
  3 31  1  0  0  0  0
  3 32  1  0  0  0  0
  4  8  2  0  0  0  0
  4 11  1  0  0  0  0
  5  9  2  0  0  0  0
  5 12  1  0  0  0  0
  6 10  2  0  0  0  0
  6 13  1  0  0  0  0
  7 14  1  0  0  0  0
  7 33  1  0  0  0  0
  7 34  1  0  0  0  0
  8 15  1  0  0  0  0
  8 35  1  0  0  0  0
  9 16  1  0  0  0  0
  9 36  1  0  0  0  0
 10 17  1  0  0  0  0
 10 37  1  0  0  0  0
 11 18  2  0  0  0  0
 11 38  1  0  0  0  0
 12 19  2  0  0  0  0
 12 39  1  0  0  0  0
 13 20  2  0  0  0  0
 13 40  1  0  0  0  0
 14 24  2  0  0  0  0
 14 25  1  0  0  0  0
 15 21  2  0  0  0  0
 15 41  1  0  0  0  0
 16 22  2  0  0  0  0
 16 42  1  0  0  0  0
 17 23  2  0  0  0  0
 17 43  1  0  0  0  0
 18 21  1  0  0  0  0
 18 44  1  0  0  0  0
 19 22  1  0  0  0  0
 19 45  1  0  0  0  0
 20 23  1  0  0  0  0
 20 46  1  0  0  0  0
 21 47  1  0  0  0  0
 22 48  1  0  0  0  0
 23 49  1  0  0  0  0
 24 26  1  0  0  0  0
 24 50  1  0  0  0  0
 25 27  2  0  0  0  0
 25 51  1  0  0  0  0
 26 28  2  0  0  0  0
 26 52  1  0  0  0  0
 27 28  1  0  0  0  0
 27 53  1  0  0  0  0
 28 54  1  0  0  0  0
M  CHG  1   1   1
M  END
> <PUBCHEM_COMPOUND_CID>
500003
> <PUBCHEM_COMPOUND_CANONICALIZED>
1
> <PUBCHEM_CACTVS_COMPLEXITY>
374
> <PUBCHEM_CACTVS_HBOND_ACCEPTOR>
0
> <PUBCHEM_CACTVS_HBOND_DONOR>
0
> <PUBCHEM_CACTVS_ROTATABLE_BOND>
7
> <PUBCHEM_CACTVS_SUBSKEYS>
AAADceB4AAIAAAAAAAAAAAAAAAAAAAAAAAAwYMGAAAAAAAABVAAAGAgAAAAADACIGAAwAIAAACCAAiBCAAACAAAgAAAIiAAAAIgIICKAERCAIAAggAAIiAcAgIAOAAAAAAAAAAAAAAAAAAAAAAAAAAAAAA==
> <PUBCHEM_IUPAC_OPENEYE_NAME>
triphenyl(3-phenylpropyl)phosphonium
> <PUBCHEM_IUPAC_CAS_NAME>
triphenyl(3-phenylpropyl)phosphonium
> <PUBCHEM_IUPAC_NAME_MARKUP>
triphenyl(3-phenylpropyl)phosphanium
> <PUBCHEM_IUPAC_NAME>
triphenyl(3-phenylpropyl)phosphanium
> <PUBCHEM_IUPAC_SYSTEMATIC_NAME>
triphenyl(3-phenylpropyl)phosphanium
> <PUBCHEM_IUPAC_TRADITIONAL_NAME>
triphenyl(3-phenylpropyl)phosphonium
> <PUBCHEM_IUPAC_INCHI>
InChI=1S/C27H26P/c1-5-14-24(15-6-1)16-13-23-28(25-17-7-2-8-18-25,26-19-9-3-10-20-26)27-21-11-4-12-22-27/h1-12,14-15,17-22H,13,16,23H2/q+1
> <PUBCHEM_IUPAC_INCHIKEY>
YEWDWCMFWXAKLL-UHFFFAOYSA-N
> <PUBCHEM_XLOGP3_AA>
6.9
> <PUBCHEM_EXACT_MASS>
381.177212827
> <PUBCHEM_MOLECULAR_FORMULA>
C27H26P+
> <PUBCHEM_MOLECULAR_WEIGHT>
381.5
> <PUBCHEM_OPENEYE_CAN_SMILES>
C1=CC=C(C=C1)CCC[P+](C2=CC=CC=C2)(C3=CC=CC=C3)C4=CC=CC=C4
> <PUBCHEM_OPENEYE_ISO_SMILES>
C1=CC=C(C=C1)CCC[P+](C2=CC=CC=C2)(C3=CC=CC=C3)C4=CC=CC=C4
> <PUBCHEM_CACTVS_TPSA>
0
> <PUBCHEM_MONOISOTOPIC_WEIGHT>
381.177212827
> <PUBCHEM_TOTAL_CHARGE>
1
> <PUBCHEM_HEAVY_ATOM_COUNT>
28
> <PUBCHEM_ATOM_DEF_STEREO_COUNT>
0
> <PUBCHEM_ATOM_UDEF_STEREO_COUNT>
0
> <PUBCHEM_BOND_DEF_STEREO_COUNT>
0
> <PUBCHEM_BOND_UDEF_STEREO_COUNT>
0
> <PUBCHEM_ISOTOPIC_ATOM_COUNT>
0
> <PUBCHEM_COMPONENT_COUNT>
1
> <PUBCHEM_CACTVS_TAUTO_COUNT>
1
> <PUBCHEM_COORDINATE_TYPE>
1
5
255
> <PUBCHEM_BONDANNOTATIONS>
10  17  8
11  18  8
12  19  8
13  20  8
14  24  8
14  25  8
15  21  8
16  22  8
17  23  8
18  21  8
19  22  8
20  23  8
24  26  8
25  27  8
26  28  8
27  28  8
4  11  8
4  8  8
5  12  8
5  9  8
6  10  8
6  13  8
8  15  8
9  16  8
$$$$
